         135
      11.706      11.706      12.468      90.000      90.000      90.000   pto.xyz
Pb     11.51784    10.81584     1.45513     0.00000     0.00000     0.00000
Pb      8.67350    11.08236     3.14888     0.00000     0.00000     0.00000
Pb     10.03764    10.69785     4.55551     0.00000     0.00000     0.00000
Pb     10.66195    11.07371     2.89709     0.00000     0.00000     0.00000
Pb      8.71968     9.01017     2.79492     0.00000     0.00000     0.00000
Pb     10.65126     7.30647     4.03552     0.00000     0.00000     0.00000
Pb     11.12059     6.85974     0.48931     0.00000     0.00000     0.00000
Pb      6.58982     7.68726     5.77476     0.00000     0.00000     0.00000
Pb      1.11404     0.00000     3.71250     0.00000     0.00000     0.00000
Pb      0.51658    11.23227     2.31338     0.00000     0.00000     0.00000
Pb      8.54482    10.42941     2.26871     0.00000     0.00000     0.00000
Pb     10.64357     0.55510     4.87807     0.00000     0.00000     0.00000
Pb      8.95728    10.35622     1.61633     0.00000     0.00000     0.00000
Pb      7.61356    10.15958     3.74596     0.00000     0.00000     0.00000
Pb      9.22983     8.81572     4.75682     0.00000     0.00000     0.00000
Pb      9.26148     0.22034     0.48465     0.00000     0.00000     0.00000
Pb      9.52033     6.55279     4.02267     0.00000     0.00000     0.00000
Pb     11.23322     7.65671     4.64069     0.00000     0.00000     0.00000
Pb      1.34619    11.05509     3.67544     0.00000     0.00000     0.00000
Pb      7.22054     9.99955     1.50669     0.00000     0.00000     0.00000
Pb      1.10789    10.35555     0.00000     0.00000     0.00000     0.00000
Pb      0.98580     9.61242     0.73399     0.00000     0.00000     0.00000
Pb      6.01371     8.35133     2.69356     0.00000     0.00000     0.00000
Pb      7.42636     8.81353     4.33010     0.00000     0.00000     0.00000
Pb      0.49838     5.21893     0.77565     0.00000     0.00000     0.00000
Pb      5.47874     7.61080     3.06618     0.00000     0.00000     0.00000
Pb      2.06299     0.59608     0.41599     0.00000     0.00000     0.00000
Ti      0.09968    11.26578     3.30572     0.00000     0.00000     0.00000
Ti     11.36266    10.11377     4.72168     0.00000     0.00000     0.00000
Ti     10.00839    10.85866     5.63724     0.00000     0.00000     0.00000
Ti      0.67082    10.06113     3.19861     0.00000     0.00000     0.00000
Ti     10.59365     9.74171     4.60322     0.00000     0.00000     0.00000
Ti     10.06855     9.31432     4.20926     0.00000     0.00000     0.00000
Ti     11.42871     8.26136     0.65575     0.00000     0.00000     0.00000
Ti     10.34590     9.08724     4.60742     0.00000     0.00000     0.00000
Ti     11.59068     7.81807     6.13002     0.00000     0.00000     0.00000
Ti      9.65703    10.90923     2.80237     0.00000     0.00000     0.00000
Ti      9.29733    10.31835     4.21739     0.00000     0.00000     0.00000
Ti     10.18172    10.94280     7.14511     0.00000     0.00000     0.00000
Ti     10.82165     9.89217     3.08622     0.00000     0.00000     0.00000
Ti     10.33341     9.81160     2.89000     0.00000     0.00000     0.00000
Ti      9.32062     9.39736     5.10746     0.00000     0.00000     0.00000
Ti     10.47853     8.82360     1.22097     0.00000     0.00000     0.00000
Ti     10.27915     9.18700     3.86856     0.00000     0.00000     0.00000
Ti      9.96316     8.09213     6.03099     0.00000     0.00000     0.00000
Ti      9.69168    10.83277     1.82287     0.00000     0.00000     0.00000
Ti      8.23574     9.92754     3.94396     0.00000     0.00000     0.00000
Ti      7.37162    10.75425     5.88254     0.00000     0.00000     0.00000
Ti      9.76760     9.27170     3.03788     0.00000     0.00000     0.00000
Ti      8.69054    10.60528     3.93960     0.00000     0.00000     0.00000
Ti      8.11734     9.96946     4.51457     0.00000     0.00000     0.00000
Ti      8.42155     7.18773     1.25377     0.00000     0.00000     0.00000
Ti      8.64655     7.63431     3.97769     0.00000     0.00000     0.00000
Ti      9.09492     8.34879     5.39271     0.00000     0.00000     0.00000
O       9.02122     9.96646     5.33648     0.00000     0.00000     0.00000
O      11.40363     9.66321     7.41326     0.00000     0.00000     0.00000
O      10.44881    10.67381     8.17321     0.00000     0.00000     0.00000
O      10.51924     8.42759     5.01438     0.00000     0.00000     0.00000
O       0.84746     9.40489     7.18195     0.00000     0.00000     0.00000
O       9.81559     8.29193     6.81799     0.00000     0.00000     0.00000
O      10.70122     7.79025     2.67656     0.00000     0.00000     0.00000
O      10.32082     7.52140     6.10203     0.00000     0.00000     0.00000
O       9.30570     8.07747     8.91005     0.00000     0.00000     0.00000
O      10.98157     9.71515     4.74343     0.00000     0.00000     0.00000
O       7.94675    10.47868     6.27536     0.00000     0.00000     0.00000
O      10.05593     9.64060    10.43487     0.00000     0.00000     0.00000
O       8.56942     9.62551     5.60106     0.00000     0.00000     0.00000
O      10.71696     6.55124     5.41898     0.00000     0.00000     0.00000
O      10.29710    10.03071     7.53819     0.00000     0.00000     0.00000
O       7.23406     6.79788     3.59962     0.00000     0.00000     0.00000
O       8.59861     9.95232     6.38122     0.00000     0.00000     0.00000
O      10.31080     8.41922     8.29431     0.00000     0.00000     0.00000
O       8.47307     9.05740     4.88303     0.00000     0.00000     0.00000
O       9.74184     0.64890     6.25919     0.00000     0.00000     0.00000
O       8.20847     9.23718     8.38198     0.00000     0.00000     0.00000
O      10.83712     9.68156     5.21818     0.00000     0.00000     0.00000
O       9.40598     9.98316     6.10514     0.00000     0.00000     0.00000
O       8.84991     9.31007     6.50304     0.00000     0.00000     0.00000
O       9.48258     6.35705     3.58936     0.00000     0.00000     0.00000
O       8.35481     8.32700     6.26323     0.00000     0.00000     0.00000
O       7.70406     6.32992     7.97843     0.00000     0.00000     0.00000
O      10.24976     9.38518     6.27452     0.00000     0.00000     0.00000
O      10.03942     9.70542     8.82527     0.00000     0.00000     0.00000
O      10.91148    11.39199    11.32177     0.00000     0.00000     0.00000
O      11.06605    10.91798     7.48424     0.00000     0.00000     0.00000
O       9.54529     9.01586     9.48672     0.00000     0.00000     0.00000
O       9.83429     8.60381     8.06647     0.00000     0.00000     0.00000
O      10.29032    10.09044     4.89676     0.00000     0.00000     0.00000
O       9.81195     8.38674     8.76092     0.00000     0.00000     0.00000
O      10.92066     7.70844     8.96591     0.00000     0.00000     0.00000
O       8.61607     0.02541     6.13617     0.00000     0.00000     0.00000
O       9.44387    10.03881     9.47584     0.00000     0.00000     0.00000
O       9.54418     9.60484     9.07286     0.00000     0.00000     0.00000
O       9.69217     9.21826     4.71846     0.00000     0.00000     0.00000
O       8.89438    10.24475     5.74781     0.00000     0.00000     0.00000
O       8.97591     9.40476     9.28909     0.00000     0.00000     0.00000
O       8.87944     8.61284     5.94652     0.00000     0.00000     0.00000
O       8.73090     8.68396     7.09355     0.00000     0.00000     0.00000
O       9.38289     7.80943     9.58460     0.00000     0.00000     0.00000
O       0.00000    11.55286     6.32271     0.00000     0.00000     0.00000
O       7.00184    10.13734     8.08439     0.00000     0.00000     0.00000
O       7.75263     9.66924     9.99997     0.00000     0.00000     0.00000
O       0.20404     9.55645     9.28825     0.00000     0.00000     0.00000
O       8.02504     8.06967     7.28864     0.00000     0.00000     0.00000
O       8.22744     8.14983     9.75964     0.00000     0.00000     0.00000
O       7.92049     6.95752     4.93485     0.00000     0.00000     0.00000
O       7.07803     8.17969     8.08299     0.00000     0.00000     0.00000
O       7.90884     6.31457     8.68516     0.00000     0.00000     0.00000
O      10.75411     9.80935     6.47708     0.00000     0.00000     0.00000
O      10.19201     9.33810     8.29083     0.00000     0.00000     0.00000
O      11.45927    10.11424     9.55911     0.00000     0.00000     0.00000
O      11.63056     8.58839     4.31180     0.00000     0.00000     0.00000
O      10.57433     9.09732     7.99283     0.00000     0.00000     0.00000
O      10.36453     7.98285     8.74610     0.00000     0.00000     0.00000
O       9.38929     7.09118     5.58354     0.00000     0.00000     0.00000
O       8.75210     7.43622     9.65538     0.00000     0.00000     0.00000
O       0.70056     7.19574     7.15770     0.00000     0.00000     0.00000
O      10.72587     9.59065     6.31898     0.00000     0.00000     0.00000
O       9.33364     9.30823     6.85120     0.00000     0.00000     0.00000
O      10.97197    10.87572    10.57934     0.00000     0.00000     0.00000
O       9.32829     9.90950     7.90054     0.00000     0.00000     0.00000
O       8.72810     8.66376     6.33510     0.00000     0.00000     0.00000
O       9.28691     7.99765     8.74501     0.00000     0.00000     0.00000
O       8.73591     7.54379     6.03249     0.00000     0.00000     0.00000
O       9.54521     7.85677     8.92383     0.00000     0.00000     0.00000
O      10.35931     6.84836     9.09680     0.00000     0.00000     0.00000
O       8.85826    10.93820     5.73480     0.00000     0.00000     0.00000
O       8.44498    10.78487     7.86490     0.00000     0.00000     0.00000
O       8.53652     9.94597     9.10239     0.00000     0.00000     0.00000
O       7.72530     9.33822     6.47987     0.00000     0.00000     0.00000
O       7.27159     9.12856     7.82603     0.00000     0.00000     0.00000
O       8.12269     8.37051    10.02018     0.00000     0.00000     0.00000
O       6.75087     7.45404     6.91420     0.00000     0.00000     0.00000
O       6.86036     6.98539     7.14516     0.00000     0.00000     0.00000
O       8.48362     6.15609     9.56548     0.00000     0.00000     0.00000
