         324   
  14.32000  14.32000  14.32000    90.000    90.000    90.000
Na     8.203676E-01   9.660015E-01   1.700001E-01   0.000000E+00   0.000000E+00   0.000000E+00
Na     8.739697E-01   2.057054E-01   4.558606E-01   0.000000E+00   0.000000E+00   0.000000E+00
Na     4.005292E-01   7.208600E-01   9.917273E-01   0.000000E+00   0.000000E+00   0.000000E+00
Na     6.207850E-01   1.104041E-01   2.411242E-01   0.000000E+00   0.000000E+00   0.000000E+00
Na     5.959610E-01   5.790641E-01   6.147339E-01   0.000000E+00   0.000000E+00   0.000000E+00
Na     1.309403E-01   6.438923E-02   3.774870E-01   0.000000E+00   0.000000E+00   0.000000E+00
Na     6.487305E-01   7.663168E-01   7.390631E-01   0.000000E+00   0.000000E+00   0.000000E+00
Na     2.713434E-01   9.606162E-01   2.561972E-01   0.000000E+00   0.000000E+00   0.000000E+00
Na     4.709404E-01   8.010313E-01   2.710411E-01   0.000000E+00   0.000000E+00   0.000000E+00
Na     8.104886E-01   9.534117E-01   6.850480E-01   0.000000E+00   0.000000E+00   0.000000E+00
Na     3.419619E-01   1.625309E-01   5.744334E-01   0.000000E+00   0.000000E+00   0.000000E+00
Na     4.518357E-01   2.020681E-01   1.587817E-03   0.000000E+00   0.000000E+00   0.000000E+00
Na     5.305548E-02   3.330941E-01   3.414937E-01   0.000000E+00   0.000000E+00   0.000000E+00
Na     6.466207E-01   2.238771E-01   8.023198E-01   0.000000E+00   0.000000E+00   0.000000E+00
Na     7.994757E-01   3.794751E-01   3.226209E-01   0.000000E+00   0.000000E+00   0.000000E+00
Na     3.618469E-01   4.646307E-01   1.175576E-01   0.000000E+00   0.000000E+00   0.000000E+00
H      2.021367E-01   2.634557E-01   7.718668E-01   0.000000E+00   0.000000E+00   0.000000E+00
H      1.608268E-01   3.338926E-01   8.424629E-01   0.000000E+00   0.000000E+00   0.000000E+00
H      7.112504E-01   8.020088E-01   3.814981E-01   0.000000E+00   0.000000E+00   0.000000E+00
H      7.592808E-01   8.568236E-01   4.617136E-01   0.000000E+00   0.000000E+00   0.000000E+00
H      8.186395E-01   4.769918E-01   8.302918E-01   0.000000E+00   0.000000E+00   0.000000E+00
H      9.379058E-01   3.250129E-01   7.019299E-01   0.000000E+00   0.000000E+00   0.000000E+00
H      6.557985E-01   1.746508E-01   6.085793E-01   0.000000E+00   0.000000E+00   0.000000E+00
H      5.588230E-01   2.249866E-01   5.726450E-01   0.000000E+00   0.000000E+00   0.000000E+00
H      3.771529E-01   2.733147E-01   1.281733E-01   0.000000E+00   0.000000E+00   0.000000E+00
H      3.576241E-01   3.171757E-01   2.622124E-01   0.000000E+00   0.000000E+00   0.000000E+00
H      4.666793E-01   6.150458E-01   2.250323E-01   0.000000E+00   0.000000E+00   0.000000E+00
H      4.963255E-01   6.194073E-01   1.173363E-01   0.000000E+00   0.000000E+00   0.000000E+00
H      4.507941E-01   9.692574E-02   4.092832E-01   0.000000E+00   0.000000E+00   0.000000E+00
H      2.271727E-01   2.285900E-01   3.208158E-01   0.000000E+00   0.000000E+00   0.000000E+00
H      9.621426E-01   5.032145E-01   2.655182E-01   0.000000E+00   0.000000E+00   0.000000E+00
H      9.417666E-01   4.255341E-01   1.948132E-01   0.000000E+00   0.000000E+00   0.000000E+00
H      7.082949E-01   5.598173E-01   7.554890E-02   0.000000E+00   0.000000E+00   0.000000E+00
H      7.715211E-01   5.971452E-01   9.966513E-01   0.000000E+00   0.000000E+00   0.000000E+00
H      2.570076E-01   2.047908E-01   5.069202E-02   0.000000E+00   0.000000E+00   0.000000E+00
H      2.468312E-01   2.066627E-01   9.404756E-01   0.000000E+00   0.000000E+00   0.000000E+00
H      4.962229E-01   9.188178E-02   8.269064E-01   0.000000E+00   0.000000E+00   0.000000E+00
H      5.424844E-01   4.518152E-02   9.127350E-01   0.000000E+00   0.000000E+00   0.000000E+00
H      4.406570E-01   8.672678E-02   1.572032E-01   0.000000E+00   0.000000E+00   0.000000E+00
H      3.482341E-01   1.394377E-01   2.811231E-01   0.000000E+00   0.000000E+00   0.000000E+00
H      9.893222E-01   3.461527E-02   4.595707E-01   0.000000E+00   0.000000E+00   0.000000E+00
H      9.215484E-01   9.768482E-01   3.851248E-01   0.000000E+00   0.000000E+00   0.000000E+00
H      2.015570E-01   3.049225E-01   1.519159E-01   0.000000E+00   0.000000E+00   0.000000E+00
H      2.886303E-01   1.672886E-01   1.973377E-01   0.000000E+00   0.000000E+00   0.000000E+00
H      3.303324E-01   4.386756E-01   6.259347E-01   0.000000E+00   0.000000E+00   0.000000E+00
H      3.626390E-01   4.595837E-01   5.211267E-01   0.000000E+00   0.000000E+00   0.000000E+00
H      1.603989E-01   5.410120E-01   5.607014E-01   0.000000E+00   0.000000E+00   0.000000E+00
H      2.810013E-01   4.159133E-01   7.546197E-01   0.000000E+00   0.000000E+00   0.000000E+00
H      3.722084E-02   8.158647E-01   1.979160E-01   0.000000E+00   0.000000E+00   0.000000E+00
H      9.582311E-01   8.790549E-01   1.420766E-01   0.000000E+00   0.000000E+00   0.000000E+00
H      7.722828E-01   2.328025E-01   2.167399E-01   0.000000E+00   0.000000E+00   0.000000E+00
H      5.825960E-01   8.812345E-01   9.744565E-02   0.000000E+00   0.000000E+00   0.000000E+00
H      8.465234E-01   6.916668E-01   8.564967E-02   0.000000E+00   0.000000E+00   0.000000E+00
H      8.907807E-01   8.884230E-01  -4.385946E-03   0.000000E+00   0.000000E+00   0.000000E+00
H      2.682024E-01   6.336488E-01   4.562109E-01   0.000000E+00   0.000000E+00   0.000000E+00
H      2.427907E-01   7.306566E-01   4.129597E-01   0.000000E+00   0.000000E+00   0.000000E+00
H      3.319568E-01   2.237275E-02   7.559284E-01   0.000000E+00   0.000000E+00   0.000000E+00
H      2.729565E-01   9.261288E-01   7.527737E-01   0.000000E+00   0.000000E+00   0.000000E+00
H      1.329048E-01   1.502605E-01   6.396869E-01   0.000000E+00   0.000000E+00   0.000000E+00
H      1.905384E-01   2.547641E-01   5.709036E-01   0.000000E+00   0.000000E+00   0.000000E+00
H      8.736372E-01   1.250472E-02   8.596768E-01   0.000000E+00   0.000000E+00   0.000000E+00
H      7.928124E-01   9.316402E-01   8.648797E-01   0.000000E+00   0.000000E+00   0.000000E+00
H      7.941243E-01   1.029242E-02   3.433808E-01   0.000000E+00   0.000000E+00   0.000000E+00
H      4.845496E-01   9.735873E-01   3.590206E-01   0.000000E+00   0.000000E+00   0.000000E+00
H      2.859233E-01   6.405330E-01   1.261323E-01   0.000000E+00   0.000000E+00   0.000000E+00
H      2.997579E-01   7.734526E-01   1.525387E-01   0.000000E+00   0.000000E+00   0.000000E+00
H      8.026198E-01   3.160893E-01   9.100408E-01   0.000000E+00   0.000000E+00   0.000000E+00
H      8.354315E-01   2.889055E-01   8.122694E-01   0.000000E+00   0.000000E+00   0.000000E+00
H      4.149771E-01   6.606237E-01   3.651213E-01   0.000000E+00   0.000000E+00   0.000000E+00
H      5.109839E-01   6.206556E-01   3.892691E-01   0.000000E+00   0.000000E+00   0.000000E+00
H      5.804561E-01   9.457760E-01   6.613804E-01   0.000000E+00   0.000000E+00   0.000000E+00
H      6.161842E-01   9.514974E-01   7.672812E-01   0.000000E+00   0.000000E+00   0.000000E+00
H      7.222728E-01  -8.849248E-03   5.160381E-01   0.000000E+00   0.000000E+00   0.000000E+00
H      8.314455E-01   1.013323E+00   5.014031E-01   0.000000E+00   0.000000E+00   0.000000E+00
H      3.888759E-01   3.807915E-01   9.160834E-01   0.000000E+00   0.000000E+00   0.000000E+00
H      3.407817E-01   2.989996E-01   8.575994E-01   0.000000E+00   0.000000E+00   0.000000E+00
H      5.089497E-01   3.199816E-01   3.737772E-01   0.000000E+00   0.000000E+00   0.000000E+00
H      5.911218E-01   3.046961E-01   2.547568E-01   0.000000E+00   0.000000E+00   0.000000E+00
H      1.428011E-01   1.904526E-01   1.443653E-01   0.000000E+00   0.000000E+00   0.000000E+00
H      4.240146E-02   1.720004E-01   1.956974E-01   0.000000E+00   0.000000E+00   0.000000E+00
H      2.395206E-02   6.499115E-01   2.249848E-01   0.000000E+00   0.000000E+00   0.000000E+00
H      9.662884E-01   6.112633E-01   3.833692E-01   0.000000E+00   0.000000E+00   0.000000E+00
H      8.868431E-01   1.074507E-01   6.241838E-01   0.000000E+00   0.000000E+00   0.000000E+00
H      7.763395E-01   1.385613E-01   6.311919E-01   0.000000E+00   0.000000E+00   0.000000E+00
H      1.906247E-01   6.594786E-01   2.339125E-02   0.000000E+00   0.000000E+00   0.000000E+00
H      1.139524E-01   6.832888E-01   9.403414E-01   0.000000E+00   0.000000E+00   0.000000E+00
H      3.018381E-01   5.338740E-01   8.058528E-01   0.000000E+00   0.000000E+00   0.000000E+00
H      2.400664E-01   5.829225E-01   8.932029E-01   0.000000E+00   0.000000E+00   0.000000E+00
H      7.262281E-02   4.576957E-01   9.766952E-01   0.000000E+00   0.000000E+00   0.000000E+00
H      9.321340E-02   5.645931E-01   3.738070E-03   0.000000E+00   0.000000E+00   0.000000E+00
H      1.484073E-01   9.585386E-01   9.771179E-01   0.000000E+00   0.000000E+00   0.000000E+00
H      9.778516E-01   9.498468E-01   2.774644E-02   0.000000E+00   0.000000E+00   0.000000E+00
H      4.177048E-02   2.901927E-01   5.481575E-01   0.000000E+00   0.000000E+00   0.000000E+00
H      2.721372E-01   3.195899E-01   5.295771E-01   0.000000E+00   0.000000E+00   0.000000E+00
H      6.685720E-01   3.738605E-01   1.501941E-01   0.000000E+00   0.000000E+00   0.000000E+00
H      6.883092E-01   4.673568E-01   2.012140E-01   0.000000E+00   0.000000E+00   0.000000E+00
H      6.693934E-03   1.216111E-01   8.903070E-01   0.000000E+00   0.000000E+00   0.000000E+00
H      4.448991E-02   2.057454E-02   8.864953E-01   0.000000E+00   0.000000E+00   0.000000E+00
H      5.645673E-01   3.959035E-03   5.275285E-01   0.000000E+00   0.000000E+00   0.000000E+00
H      4.668017E-01   9.296632E-01   5.831575E-01   0.000000E+00   0.000000E+00   0.000000E+00
H      3.563114E-01   7.279438E-01   5.136303E-01   0.000000E+00   0.000000E+00   0.000000E+00
H      3.677182E-01   7.859776E-01   6.140458E-01   0.000000E+00   0.000000E+00   0.000000E+00
H      5.092777E-01   3.293530E-01   9.446271E-02   0.000000E+00   0.000000E+00   0.000000E+00
H      6.376590E-01   2.401775E-01   6.920863E-02   0.000000E+00   0.000000E+00   0.000000E+00
H      1.327746E-01   6.703793E-01   6.967002E-01   0.000000E+00   0.000000E+00   0.000000E+00
H     -5.089864E-04   7.912303E-01   5.462203E-01   0.000000E+00   0.000000E+00   0.000000E+00
H      1.710072E-01   4.739672E-01   2.321969E-01   0.000000E+00   0.000000E+00   0.000000E+00
H      1.596497E-01   4.822210E-01   1.202416E-01   0.000000E+00   0.000000E+00   0.000000E+00
H      2.551341E-02   3.048263E-01   8.921483E-01   0.000000E+00   0.000000E+00   0.000000E+00
H      2.265793E-02   3.880340E-01   8.154638E-01   0.000000E+00   0.000000E+00   0.000000E+00
H      1.472532E-01   7.649398E-01   2.569352E-01   0.000000E+00   0.000000E+00   0.000000E+00
H      1.676245E-01   7.197122E-01   1.583447E-01   0.000000E+00   0.000000E+00   0.000000E+00
H      3.645496E-01   5.225184E-01   9.363508E-01   0.000000E+00   0.000000E+00   0.000000E+00
H      4.759916E-01   4.861743E-01   9.584390E-01   0.000000E+00   0.000000E+00   0.000000E+00
H      8.527314E-01   4.656067E-01   5.424203E-01   0.000000E+00   0.000000E+00   0.000000E+00
H      9.590503E-01   4.676988E-01   6.385379E-01   0.000000E+00   0.000000E+00   0.000000E+00
H      2.015603E-01   8.692942E-01   3.942301E-01   0.000000E+00   0.000000E+00   0.000000E+00
H      1.158738E-01   8.026823E-01   4.277892E-01   0.000000E+00   0.000000E+00   0.000000E+00
H      3.550664E-02   2.073348E-01   2.585813E-02   0.000000E+00   0.000000E+00   0.000000E+00
H      9.439264E-01   2.367523E-01   9.747540E-01   0.000000E+00   0.000000E+00   0.000000E+00
H      7.818095E-01   6.621493E-01   1.595728E-01   0.000000E+00   0.000000E+00   0.000000E+00
H      6.622306E-01   8.400816E-01   2.116787E-01   0.000000E+00   0.000000E+00   0.000000E+00
H      4.682834E-01   9.312479E-01   9.958884E-01   0.000000E+00   0.000000E+00   0.000000E+00
H      3.557971E-01   9.279504E-01   9.879861E-01   0.000000E+00   0.000000E+00   0.000000E+00
H      6.222924E-01   7.507257E-01   5.380329E-01   0.000000E+00   0.000000E+00   0.000000E+00
H      5.209352E-01   7.460795E-01   5.637232E-01   0.000000E+00   0.000000E+00   0.000000E+00
H      6.438058E-01   5.018630E-01   9.335406E-01   0.000000E+00   0.000000E+00   0.000000E+00
H      6.420816E-01   5.872253E-01   1.961808E-01   0.000000E+00   0.000000E+00   0.000000E+00
H      4.420810E-01   1.570071E-01   6.915251E-01   0.000000E+00   0.000000E+00   0.000000E+00
H      4.559491E-01   4.507202E-02   6.689256E-01   0.000000E+00   0.000000E+00   0.000000E+00
H      9.394376E-01   4.997136E-01   7.402529E-01   0.000000E+00   0.000000E+00   0.000000E+00
H      8.624690E-01   4.646299E-01   5.945010E-02   0.000000E+00   0.000000E+00   0.000000E+00
H      3.563485E-01   6.774854E-01   8.331075E-01   0.000000E+00   0.000000E+00   0.000000E+00
H      4.490656E-01   7.219719E-01   8.231972E-01   0.000000E+00   0.000000E+00   0.000000E+00
H      5.239982E-01   5.977039E-01   7.874673E-01   0.000000E+00   0.000000E+00   0.000000E+00
H      5.513025E-01   6.530939E-01   8.819187E-01   0.000000E+00   0.000000E+00   0.000000E+00
H      7.992868E-01   1.059252E-01   2.955615E-01   0.000000E+00   0.000000E+00   0.000000E+00
H      8.996192E-01   2.123549E-01   2.740274E-01   0.000000E+00   0.000000E+00   0.000000E+00
H      4.597142E-02   2.190820E-01   6.896597E-01   0.000000E+00   0.000000E+00   0.000000E+00
H      8.908859E-01   2.339750E-01   6.671865E-01   0.000000E+00   0.000000E+00   0.000000E+00
H      3.223609E-03   4.636224E-02   7.260148E-01   0.000000E+00   0.000000E+00   0.000000E+00
H      2.760506E-02   1.920645E-02   6.144752E-01   0.000000E+00   0.000000E+00   0.000000E+00
H      6.343468E-01   5.176505E-01   4.219636E-01   0.000000E+00   0.000000E+00   0.000000E+00
H      6.674146E-01   6.844261E-02   6.775377E-01   0.000000E+00   0.000000E+00   0.000000E+00
H      5.217381E-01   4.338280E-01   7.340691E-01   0.000000E+00   0.000000E+00   0.000000E+00
H      4.312265E-01   5.095579E-01   7.144520E-01   0.000000E+00   0.000000E+00   0.000000E+00
H      1.814818E-01   4.823559E-01   4.031714E-01   0.000000E+00   0.000000E+00   0.000000E+00
H      2.333427E-01   3.983054E-01   3.487997E-01   0.000000E+00   0.000000E+00   0.000000E+00
H      7.787300E-01   7.084926E-01   4.876374E-01   0.000000E+00   0.000000E+00   0.000000E+00
H      9.149399E-01   6.504791E-01   2.105975E-01   0.000000E+00   0.000000E+00   0.000000E+00
H      7.064978E-01   1.490031E-01   7.431536E-02   0.000000E+00   0.000000E+00   0.000000E+00
H      7.631461E-01   4.179839E-02   9.914824E-01   0.000000E+00   0.000000E+00   0.000000E+00
H      6.841059E-01   2.631020E-01   4.837195E-01   0.000000E+00   0.000000E+00   0.000000E+00
H      7.353291E-01   2.521705E-01   3.818327E-01   0.000000E+00   0.000000E+00   0.000000E+00
H      9.737377E-01   4.711218E-01   5.633741E-02   0.000000E+00   0.000000E+00   0.000000E+00
H      8.753244E-01   3.325428E-01   5.268348E-02   0.000000E+00   0.000000E+00   0.000000E+00
H      4.868652E-01   3.339611E-01   8.111306E-01   0.000000E+00   0.000000E+00   0.000000E+00
H      5.973994E-01   4.281514E-01   8.547708E-01   0.000000E+00   0.000000E+00   0.000000E+00
H      3.516141E-01   9.151729E-01   4.122721E-01   0.000000E+00   0.000000E+00   0.000000E+00
H      4.253465E-01   8.387129E-01   4.440506E-01   0.000000E+00   0.000000E+00   0.000000E+00
H      6.564004E-02   9.521352E-01   2.311732E-01   0.000000E+00   0.000000E+00   0.000000E+00
H      9.865859E-02   4.997431E-02   1.954749E-01   0.000000E+00   0.000000E+00   0.000000E+00
H      9.821798E-01   7.759845E-01   8.732492E-01   0.000000E+00   0.000000E+00   0.000000E+00
H      7.678561E-02   7.741323E-01   6.729090E-01   0.000000E+00   0.000000E+00   0.000000E+00
H      1.940604E-01   2.301421E-01   4.252572E-01   0.000000E+00   0.000000E+00   0.000000E+00
H      3.631777E-01   3.197743E-01   3.742702E-01   0.000000E+00   0.000000E+00   0.000000E+00
H      9.098458E-01   8.556370E-01   3.046966E-01   0.000000E+00   0.000000E+00   0.000000E+00
H      9.292362E-01   8.292431E-01   4.068121E-01   0.000000E+00   0.000000E+00   0.000000E+00
H      7.757043E-01   6.345223E-01   6.232200E-01   0.000000E+00   0.000000E+00   0.000000E+00
H      7.748343E-01   5.956728E-01   7.360968E-01   0.000000E+00   0.000000E+00   0.000000E+00
H      9.478959E-01   5.494100E-01   4.841677E-01   0.000000E+00   0.000000E+00   0.000000E+00
H      9.991281E-01   7.150115E-01   4.713943E-01   0.000000E+00   0.000000E+00   0.000000E+00
H      1.994686E-01   5.232015E-01   7.032642E-01   0.000000E+00   0.000000E+00   0.000000E+00
H      8.192428E-02   5.183731E-01   7.029745E-01   0.000000E+00   0.000000E+00   0.000000E+00
H      8.676795E-01   7.305238E-01   9.271191E-01   0.000000E+00   0.000000E+00   0.000000E+00
H      8.437395E-01   7.943913E-01   8.352959E-01   0.000000E+00   0.000000E+00   0.000000E+00
H      6.163250E-01   7.712526E-01   9.513285E-01   0.000000E+00   0.000000E+00   0.000000E+00
H      7.216705E-01   8.064265E-01   9.316512E-01   0.000000E+00   0.000000E+00   0.000000E+00
H      1.560932E-01   3.269876E-02   5.783915E-01   0.000000E+00   0.000000E+00   0.000000E+00
H      2.127632E-01   4.722305E-02   6.774584E-01   0.000000E+00   0.000000E+00   0.000000E+00
H      7.178544E-02   9.385291E-01   5.000331E-01   0.000000E+00   0.000000E+00   0.000000E+00
H      2.514097E-01   9.868438E-01   4.768922E-01   0.000000E+00   0.000000E+00   0.000000E+00
H      4.862702E-01   3.095425E-01   6.936581E-01   0.000000E+00   0.000000E+00   0.000000E+00
H      5.058041E-01   3.128020E-01   4.796702E-01   0.000000E+00   0.000000E+00   0.000000E+00
H      7.309292E-01   5.598206E-01   3.116922E-01   0.000000E+00   0.000000E+00   0.000000E+00
H      7.651502E-01   5.620535E-01   4.203190E-01   0.000000E+00   0.000000E+00   0.000000E+00
H      3.336742E-01   7.915694E-01   7.522188E-01   0.000000E+00   0.000000E+00   0.000000E+00
H      2.423409E-01   7.912183E-01   7.090512E-01   0.000000E+00   0.000000E+00   0.000000E+00
H      4.056925E-01   3.212778E-01   6.042168E-01   0.000000E+00   0.000000E+00   0.000000E+00
H      6.123432E-01   9.742335E-02   5.072292E-01   0.000000E+00   0.000000E+00   0.000000E+00
H      9.387377E-01   6.112669E-01   9.883982E-01   0.000000E+00   0.000000E+00   0.000000E+00
H      8.552544E-01   5.711690E-01   8.757795E-01   0.000000E+00   0.000000E+00   0.000000E+00
H      6.000933E-01   9.107399E-01   9.685998E-01   0.000000E+00   0.000000E+00   0.000000E+00
H      6.603924E-01   1.109433E-02   3.416227E-02   0.000000E+00   0.000000E+00   0.000000E+00
H      7.422390E-02   7.521796E-01   8.146011E-01   0.000000E+00   0.000000E+00   0.000000E+00
H      9.018955E-02   8.815095E-01   9.330498E-01   0.000000E+00   0.000000E+00   0.000000E+00
H      9.046858E-01   8.049610E-01   6.841005E-01   0.000000E+00   0.000000E+00   0.000000E+00
H      9.891255E-01   8.841421E-01   6.469399E-01   0.000000E+00   0.000000E+00   0.000000E+00
H      2.642599E-01   6.973296E-02   9.864059E-01   0.000000E+00   0.000000E+00   0.000000E+00
H      2.646054E-01   9.975683E-01   9.033235E-01   0.000000E+00   0.000000E+00   0.000000E+00
H      5.668982E-01   7.747963E-01   9.796444E-02   0.000000E+00   0.000000E+00   0.000000E+00
H      9.680375E-01   1.412134E-01   3.182252E-01   0.000000E+00   0.000000E+00   0.000000E+00
H      6.017254E-01   6.464768E-01   1.681598E-02   0.000000E+00   0.000000E+00   0.000000E+00
H      5.046851E-01   2.365177E-02   8.841277E-02   0.000000E+00   0.000000E+00   0.000000E+00
H      7.562042E-01   7.861761E-01   2.333176E-01   0.000000E+00   0.000000E+00   0.000000E+00
H      9.659373E-01   3.806857E-01   5.236420E-01   0.000000E+00   0.000000E+00   0.000000E+00
H      7.984695E-01   7.405277E-01   6.981032E-01   0.000000E+00   0.000000E+00   0.000000E+00
H      3.491488E-01   6.539313E-02   4.331726E-01   0.000000E+00   0.000000E+00   0.000000E+00
H      3.630751E-01   8.551426E-01   1.299307E-01   0.000000E+00   0.000000E+00   0.000000E+00
H      8.706760E-01   6.483527E-01   5.128296E-01   0.000000E+00   0.000000E+00   0.000000E+00
H      4.907757E-01   2.731419E-01   2.234003E-01   0.000000E+00   0.000000E+00   0.000000E+00
H      7.967068E-01   2.526447E-01   5.183502E-02   0.000000E+00   0.000000E+00   0.000000E+00
H      1.004231E-01   5.793621E-01   4.792143E-01   0.000000E+00   0.000000E+00   0.000000E+00
H      5.707702E-01   2.238170E-02   3.855664E-01   0.000000E+00   0.000000E+00   0.000000E+00
H      5.387036E-01   4.703479E-01   4.412050E-01   0.000000E+00   0.000000E+00   0.000000E+00
H      5.605122E-01   3.794808E-01   4.092717E-03   0.000000E+00   0.000000E+00   0.000000E+00
O      2.226750E-01   3.041891E-01   8.219194E-01   0.000000E+00   0.000000E+00   0.000000E+00
O      7.188154E-01   8.032970E-01   4.482491E-01   0.000000E+00   0.000000E+00   0.000000E+00
O      9.850297E-01   4.636510E-01   7.044689E-01   0.000000E+00   0.000000E+00   0.000000E+00
O      6.160739E-01   2.085076E-01   5.439821E-01   0.000000E+00   0.000000E+00   0.000000E+00
O      4.184922E-01   3.187839E-01   1.544502E-01   0.000000E+00   0.000000E+00   0.000000E+00
O      4.539083E-01   5.898960E-01   1.633821E-01   0.000000E+00   0.000000E+00   0.000000E+00
O      3.952419E-01   1.149611E-01   4.420709E-01   0.000000E+00   0.000000E+00   0.000000E+00
O      9.564760E-01   4.355743E-01   2.625030E-01   0.000000E+00   0.000000E+00   0.000000E+00
O      7.090151E-01   5.684354E-01   1.004833E+00   0.000000E+00   0.000000E+00   0.000000E+00
O      2.705303E-01   1.687447E-01   9.925258E-01   0.000000E+00   0.000000E+00   0.000000E+00
O      5.463697E-01   9.838446E-02   8.724534E-01   0.000000E+00   0.000000E+00   0.000000E+00
O      3.278480E-01   1.168367E-01   2.209719E-01   0.000000E+00   0.000000E+00   0.000000E+00
O      9.311492E-01   4.192936E-02   4.130362E-01   0.000000E+00   0.000000E+00   0.000000E+00
O      2.273398E-01   2.427951E-01   1.407676E-01   0.000000E+00   0.000000E+00   0.000000E+00
O      3.444303E-01   4.093314E-01   5.629528E-01   0.000000E+00   0.000000E+00   0.000000E+00
O      2.998555E-01   4.714603E-01   7.230690E-01   0.000000E+00   0.000000E+00   0.000000E+00
O      9.862725E-01   8.636029E-01   2.030265E-01   0.000000E+00   0.000000E+00   0.000000E+00
O      7.978726E-01   2.184288E-01   2.781965E-01   0.000000E+00   0.000000E+00   0.000000E+00
O      9.156806E-01   9.315090E-01   4.169043E-02   0.000000E+00   0.000000E+00   0.000000E+00
O      2.992599E-01   6.836436E-01   4.232571E-01   0.000000E+00   0.000000E+00   0.000000E+00
O      2.708745E-01   1.001007E+00   7.734379E-01   0.000000E+00   0.000000E+00   0.000000E+00
O      1.080522E-01   2.124235E-01   6.653088E-01   0.000000E+00   0.000000E+00   0.000000E+00
O      8.059264E-01   9.955830E-01   8.442534E-01   0.000000E+00   0.000000E+00   0.000000E+00
O      5.255474E-01   2.495902E-02   3.336952E-01   0.000000E+00   0.000000E+00   0.000000E+00
O      2.573393E-01   6.959857E-01   9.334999E-02   0.000000E+00   0.000000E+00   0.000000E+00
O      7.873653E-01   3.222029E-01   8.441179E-01   0.000000E+00   0.000000E+00   0.000000E+00
O      4.820791E-01   6.606881E-01   3.442558E-01   0.000000E+00   0.000000E+00   0.000000E+00
O      6.359373E-01   9.279325E-01   7.085957E-01   0.000000E+00   0.000000E+00   0.000000E+00
O      7.860043E-01   9.692693E-01   5.363460E-01   0.000000E+00   0.000000E+00   0.000000E+00
O      3.947846E-01   3.147216E-01   8.954649E-01   0.000000E+00   0.000000E+00   0.000000E+00
O      5.412933E-01   2.579114E-01   2.695437E-01   0.000000E+00   0.000000E+00   0.000000E+00
O      8.088009E-02   1.536920E-01   1.431936E-01   0.000000E+00   0.000000E+00   0.000000E+00
O      9.627947E-01   6.224713E-01   2.462883E-01   0.000000E+00   0.000000E+00   0.000000E+00
O      8.401012E-01   1.552181E-01   6.022482E-01   0.000000E+00   0.000000E+00   0.000000E+00
O      1.471605E-01   6.354746E-01   9.699032E-01   0.000000E+00   0.000000E+00   0.000000E+00
O      3.015716E-01   5.807201E-01   8.645091E-01   0.000000E+00   0.000000E+00   0.000000E+00
O      6.188710E-02   5.022775E-01   2.547924E-02   0.000000E+00   0.000000E+00   0.000000E+00
O      8.101878E-02   9.413018E-01   9.672960E-01   0.000000E+00   0.000000E+00   0.000000E+00
O      2.381861E-01   2.605091E-01   5.197871E-01   0.000000E+00   0.000000E+00   0.000000E+00
O      6.906948E-01   3.959971E-01   2.106895E-01   0.000000E+00   0.000000E+00   0.000000E+00
O      1.749010E-02   7.063076E-02   8.446559E-01   0.000000E+00   0.000000E+00   0.000000E+00
O      5.078716E-01   9.804796E-01   6.064854E-01   0.000000E+00   0.000000E+00   0.000000E+00
O      4.027696E-01   7.616778E-01   5.563876E-01   0.000000E+00   0.000000E+00   0.000000E+00
O      5.630960E-01   3.233391E-01   5.125227E-02   0.000000E+00   0.000000E+00   0.000000E+00
O      1.313381E-01   7.388267E-01   7.138172E-01   0.000000E+00   0.000000E+00   0.000000E+00
O      2.036232E-01   4.764679E-01   1.719070E-01   0.000000E+00   0.000000E+00   0.000000E+00
O      5.211923E-02   3.640753E-01   8.711238E-01   0.000000E+00   0.000000E+00   0.000000E+00
O      1.152064E-01   7.391107E-01   2.008697E-01   0.000000E+00   0.000000E+00   0.000000E+00
O      4.100785E-01   4.860168E-01   9.761381E-01   0.000000E+00   0.000000E+00   0.000000E+00
O      9.213381E-01   4.724703E-01   5.384507E-01   0.000000E+00   0.000000E+00   0.000000E+00
O      1.700227E-01   8.073719E-01   3.792530E-01   0.000000E+00   0.000000E+00   0.000000E+00
O      7.992686E-03   2.142232E-01   9.628168E-01   0.000000E+00   0.000000E+00   0.000000E+00
O      8.319319E-01   7.076911E-01   1.495229E-01   0.000000E+00   0.000000E+00   0.000000E+00
O      4.133397E-01   8.895891E-01   5.929733E-04   0.000000E+00   0.000000E+00   0.000000E+00
O      5.831824E-01   7.352076E-01   5.889754E-01   0.000000E+00   0.000000E+00   0.000000E+00
O      7.063799E-01   5.743381E-01   2.002170E-01   0.000000E+00   0.000000E+00   0.000000E+00
O      4.204404E-01   9.449651E-02   7.077226E-01   0.000000E+00   0.000000E+00   0.000000E+00
O      9.160638E-01   4.287282E-01   7.328455E-02   0.000000E+00   0.000000E+00   0.000000E+00
O      3.866768E-01   7.364625E-01   8.383972E-01   0.000000E+00   0.000000E+00   0.000000E+00
O      5.489244E-01   6.575026E-01   8.133715E-01   0.000000E+00   0.000000E+00   0.000000E+00
O      7.722170E-01   4.200439E-02   2.908677E-01   0.000000E+00   0.000000E+00   0.000000E+00
O      9.286765E-01   2.594971E-01   7.192943E-01   0.000000E+00   0.000000E+00   0.000000E+00
O      9.770814E-01   2.195572E-02   6.640976E-01   0.000000E+00   0.000000E+00   0.000000E+00
O      6.902538E-01   1.324830E-01   6.764137E-01   0.000000E+00   0.000000E+00   0.000000E+00
O      4.981971E-01   5.063311E-01   7.099703E-01   0.000000E+00   0.000000E+00   0.000000E+00
O      1.772636E-01   4.351151E-01   3.545317E-01   0.000000E+00   0.000000E+00   0.000000E+00
O      8.016447E-01   6.480717E-01   5.160727E-01   0.000000E+00   0.000000E+00   0.000000E+00
O      7.254979E-01   4.062356E-02   4.831963E-02   0.000000E+00   0.000000E+00   0.000000E+00
O      7.324941E-01   2.874296E-01   4.398551E-01   0.000000E+00   0.000000E+00   0.000000E+00
O      8.473603E-01   2.811848E-01   1.348826E-02   0.000000E+00   0.000000E+00   0.000000E+00
O      5.326440E-01   3.441743E-01   7.595251E-01   0.000000E+00   0.000000E+00   0.000000E+00
O      4.030409E-01   8.718147E-01   3.863625E-01   0.000000E+00   0.000000E+00   0.000000E+00
O      1.113589E-01   1.000174E+00   2.392464E-01   0.000000E+00   0.000000E+00   0.000000E+00
O      8.289257E-01   7.976613E-01   7.247431E-01   0.000000E+00   0.000000E+00   0.000000E+00
O      1.737206E-01   2.165642E-01   3.606431E-01   0.000000E+00   0.000000E+00   0.000000E+00
O      8.904326E-01   8.717321E-01   3.686471E-01   0.000000E+00   0.000000E+00   0.000000E+00
O      7.349333E-01   6.226752E-01   6.833807E-01   0.000000E+00   0.000000E+00   0.000000E+00
O      1.186463E-02   7.807848E-01   4.803046E-01   0.000000E+00   0.000000E+00   0.000000E+00
O      1.442561E-01   5.552032E-01   6.812381E-01   0.000000E+00   0.000000E+00   0.000000E+00
O      8.560307E-01   7.965065E-01   9.104109E-01   0.000000E+00   0.000000E+00   0.000000E+00
O      6.555237E-01   8.157757E-01   9.121527E-01   0.000000E+00   0.000000E+00   0.000000E+00
O      2.012182E-01   7.351377E-02   6.132877E-01   0.000000E+00   0.000000E+00   0.000000E+00
O      7.195588E-02   7.456829E-03   5.081918E-01   0.000000E+00   0.000000E+00   0.000000E+00
O      4.440884E-01   2.702305E-01   6.329449E-01   0.000000E+00   0.000000E+00   0.000000E+00
O      7.411367E-01   5.224018E-01   3.696732E-01   0.000000E+00   0.000000E+00   0.000000E+00
O      3.008977E-01   8.278005E-01   7.046140E-01   0.000000E+00   0.000000E+00   0.000000E+00
O      4.852034E-01   3.499105E-01   4.279648E-01   0.000000E+00   0.000000E+00   0.000000E+00
O      8.725512E-01   6.264924E-01   9.683816E-01   0.000000E+00   0.000000E+00   0.000000E+00
O      5.776979E-01   9.625788E-01   9.800095E-03   0.000000E+00   0.000000E+00   0.000000E+00
O      4.885303E-02   7.586576E-01   8.777158E-01   0.000000E+00   0.000000E+00   0.000000E+00
O      9.820213E-01   8.151171E-01   6.418387E-01   0.000000E+00   0.000000E+00   0.000000E+00
O      2.637603E-01   9.979808E-01   9.710343E-01   0.000000E+00   0.000000E+00   0.000000E+00
O      5.699742E-01   8.285536E-01   1.438609E-01   0.000000E+00   0.000000E+00   0.000000E+00
O      9.689243E-01   2.045114E-01   2.905393E-01   0.000000E+00   0.000000E+00   0.000000E+00
O      5.432755E-01   6.809625E-01   1.812571E-02   0.000000E+00   0.000000E+00   0.000000E+00
O      5.007515E-01   7.966041E-02   1.242159E-01   0.000000E+00   0.000000E+00   0.000000E+00
O      7.152315E-01   8.369761E-01   2.533690E-01   0.000000E+00   0.000000E+00   0.000000E+00
O      9.917033E-01   3.146693E-01   5.029218E-01   0.000000E+00   0.000000E+00   0.000000E+00
O      8.423891E-01   5.382391E-01   8.112942E-01   0.000000E+00   0.000000E+00   0.000000E+00
O      2.605052E-01   9.746212E-01   4.078185E-01   0.000000E+00   0.000000E+00   0.000000E+00
O      3.387331E-01   8.283262E-01   1.849806E-01   0.000000E+00   0.000000E+00   0.000000E+00
O      9.827600E-01   6.083370E-01   4.487288E-01   0.000000E+00   0.000000E+00   0.000000E+00
O      3.245216E-01   3.057788E-01   3.180599E-01   0.000000E+00   0.000000E+00   0.000000E+00
O      6.937261E-01   2.120235E-01   1.013246E-01   0.000000E+00   0.000000E+00   0.000000E+00
O      1.681128E-01   5.669587E-01   4.974518E-01   0.000000E+00   0.000000E+00   0.000000E+00
O      6.180112E-01   3.241714E-02   4.820775E-01   0.000000E+00   0.000000E+00   0.000000E+00
O      5.747818E-01   5.280476E-01   4.582159E-01   0.000000E+00   0.000000E+00   0.000000E+00
O      5.908373E-01   4.582989E-01   9.179138E-01   0.000000E+00   0.000000E+00   0.000000E+00
