135
11.706 11.706 12.468 90.0 90.0 90.0
Pb 3.98575253 3.94237009 4.17449836
Pb 3.74277109 3.96513826 8.31034591
Pb 3.85930432 3.93229123 12.42316507
Pb 3.91263685 7.96439951 4.29015152
Pb 3.74671601 7.78811886 8.28195628
Pb 3.91172378 7.64257816 12.38145961
Pb 3.95181683 11.60441533 4.09703467
Pb 3.56476965 11.67510787 8.52095537
Pb 4.09699465 0.01841354 12.35555111
Pb 8.04595522 3.97794463 4.24333418
Pb 7.73177788 3.90935917 8.2397521
Pb 7.91106698 4.06583327 12.44903617
Pb 7.76701294 7.9031069 4.18742767
Pb 7.65222391 7.88630879 8.3582355
Pb 7.79029618 7.77150805 12.43931113
Pb 7.79300026 0.03723679 4.09666063
Pb 7.8151129 11.57819389 8.38042854
Pb 7.9614379 11.67249743 12.42999754
Pb 0.11682588 3.96280877 4.3525788
Pb 11.61864983 3.87263745 8.17863396
Pb 0.09646915 3.90304964 0.05778918
Pb 0.0860391 7.83956673 4.1166593
Pb 11.51555509 7.73183641 8.27382714
Pb 11.63623224 7.77132075 12.40508647
Pb 0.04440086 11.46424769 4.12000073
Pb 11.46985486 11.66857592 8.30371294
Pb 0.17805997 0.06933464 0.09115355
Ti 2.01034162 1.98080738 2.32292555
Ti 1.97249612 1.88239504 6.43649279
Ti 1.85680572 1.94602885 10.50992554
Ti 2.05913222 5.87789866 2.3143351
Ti 1.90680205 5.85061198 6.42699217
Ti 1.86194465 5.81410096 10.39539449
Ti 1.97813841 9.72415079 2.11038355
Ti 1.8856376 9.79470285 6.42732881
Ti 1.9919749 9.68628188 10.5494491
Ti 5.82679027 1.95034837 2.28255416
Ti 5.79606202 1.89987209 6.3960466
Ti 5.87161254 1.95321634 10.63086514
Ti 5.92627956 5.86346516 2.30532073
Ti 5.88457108 5.85658204 6.28958234
Ti 5.79805204 5.8211948 10.46743459
Ti 5.89696774 9.77218051 2.1557172
Ti 5.87993551 9.80322482 6.3680684
Ti 5.85294147 9.70969388 10.54150698
Ti 9.82975061 1.94381642 2.2039933
Ti 9.70537436 1.86648658 6.37411538
Ti 9.63155633 1.93710888 10.52960004
Ti 9.83623574 5.8104604 2.30144318
Ti 9.74422658 5.92438319 6.37376628
Ti 9.69526038 5.87006735 10.41988164
Ti 9.7212477 9.63243428 2.15834795
Ti 9.74046895 9.67058413 6.37682094
Ti 9.77877098 9.73161922 10.49031337
O 1.7724757 1.86981109 0.48580315
O 1.97599621 1.84390571 4.65237186
O 1.8944288 1.93023746 8.71332414
O 1.90044569 5.73835144 0.45996946
O 2.07422126 5.82183863 4.63381948
O 1.84033538 5.7267625 8.60462812
O 1.91599126 9.68390556 0.2724632
O 1.8834954 9.66093839 4.54720428
O 1.79677735 9.70844134 8.77242246
O 5.93994046 1.84834228 0.43823773
O 5.68068768 1.91356811 4.5611061
O 5.86086643 1.84197422 8.89472107
O 5.73387974 5.84068529 0.50702369
O 5.91733618 5.57806118 4.49241989
O 5.88146899 5.87529993 8.66239236
O 5.61980477 9.59913071 0.34649819
O 5.73637312 9.86860283 4.56959681
O 5.88263959 9.7376361 8.72303671
O 9.72564916 1.79215348 0.449434
O 9.83403501 2.07384667 4.55980943
O 9.70304487 1.80751175 8.73006866
O 9.92760107 5.84547304 0.476315
O 9.8053436 5.87123795 4.54745364
O 9.75784066 5.81373808 8.57936795
O 9.81188726 9.56147251 0.3456753
O 9.71554688 9.72975796 4.5601336
O 9.65995508 9.55915472 8.69770174
O 3.8774252 1.82015423 2.56103941
O 3.85945649 1.84751116 6.76562305
O 3.93395348 1.9915886 10.96585536
O 3.94715785 5.95109628 2.65806539
O 3.81724466 5.78860529 6.81867439
O 3.84193261 5.75340535 10.70476297
O 3.88089018 9.88040248 2.45053553
O 3.84002453 9.73486178 6.7604613
O 3.93473778 9.67691708 10.77690282
O 7.737865 2.02058437 2.54994289
O 7.80858095 1.87599185 6.81780163
O 7.81714974 1.83891895 10.7854808
O 7.82979222 5.80589506 2.43623473
O 7.76163989 5.8935847 6.51879406
O 7.76860496 5.82182692 10.80282379
O 7.76036393 9.75417668 2.53473193
O 7.74767463 9.76025209 6.62672953
O 7.80337178 9.6855444 10.82652546
O 0.00182614 2.00533145 2.56490449
O 11.59996705 1.88440847 6.70620056
O 11.66410423 1.84442077 10.85983996
O 0.01925637 5.83478546 2.80275653
O 11.68737575 5.70777536 6.64237687
O 11.70466552 5.71462337 10.84056443
O 11.67844408 9.6127682 2.45359019
O 11.60647559 9.71717401 6.70608835
O 11.67744907 9.55784365 10.75438561
O 1.92050977 3.85638952 2.57728522
O 1.87249176 3.81613259 6.72275807
O 1.98074885 3.88243537 10.82448071
O 1.99538135 7.75208779 2.40361844
O 1.9051515 7.79556388 6.69885691
O 1.88722961 7.70035898 10.75927307
O 1.80391801 11.62418677 2.50561915
O 1.74948511 11.65366247 6.83220217
O 2.06167243 11.63311844 10.63187504
O 5.91809707 3.83770675 2.56460526
O 5.79916411 3.81358068 6.60729192
O 5.93912104 3.94748561 10.90630819
O 5.79870757 7.86494534 2.69145469
O 5.74743529 7.75852609 6.56589816
O 5.79517236 7.70162323 10.75918579
O 5.74810253 11.66285168 2.54162674
O 5.81723817 11.68958819 6.77352776
O 5.88678352 11.60344373 10.78740088
O 9.75855472 3.95282355 2.51775052
O 9.72324943 3.93972454 6.68859575
O 9.73106903 3.8680604 10.78784972
O 9.66176951 7.81614302 2.57750964
O 9.62301095 7.79823284 6.68547875
O 9.69571691 7.73347525 10.8614608
O 9.57852815 11.65518425 2.61234523
O 9.58788124 11.61514973 6.63086891
O 9.72655052 11.54430502 10.8249919
